Version 4
SHEET 1 1872 872
WIRE -1376 -720 -1584 -720
WIRE -208 -720 -1376 -720
WIRE 864 -720 -128 -720
WIRE -1024 -608 -1264 -608
WIRE -752 -608 -1024 -608
WIRE -48 -608 -752 -608
WIRE 720 -608 -48 -608
WIRE -1584 -560 -1584 -720
WIRE -1264 -528 -1264 -608
WIRE -1024 -432 -1024 -608
WIRE -752 -432 -752 -608
WIRE -1584 -416 -1584 -480
WIRE -1264 -384 -1264 -448
WIRE -880 -384 -960 -384
WIRE -816 -384 -880 -384
WIRE -1024 -288 -1024 -336
WIRE -880 -288 -880 -384
WIRE -880 -288 -1024 -288
WIRE -48 -288 -48 -608
WIRE -752 -240 -752 -336
WIRE -112 -240 -752 -240
WIRE -1024 -128 -1024 -288
WIRE -752 -128 -752 -240
WIRE -1376 -80 -1376 -720
WIRE -1088 -80 -1376 -80
WIRE -512 -80 -688 -80
WIRE 720 -80 720 -608
WIRE -512 -32 -512 -80
WIRE -48 -32 -48 -192
WIRE 656 -32 -48 -32
WIRE -1024 64 -1024 -32
WIRE -896 64 -1024 64
WIRE -752 64 -752 -32
WIRE -752 64 -896 64
WIRE -512 64 -512 48
WIRE 720 64 720 16
WIRE 864 64 864 -720
WIRE 864 64 720 64
WIRE 896 64 864 64
WIRE -48 80 -48 -32
WIRE 720 144 720 64
WIRE -1184 160 -1328 160
WIRE -336 160 -480 160
WIRE 432 160 288 160
WIRE 896 160 896 64
WIRE -1328 208 -1328 160
WIRE -1184 208 -1184 160
WIRE -480 208 -480 160
WIRE -336 208 -336 160
WIRE 288 208 288 160
WIRE 432 208 432 160
WIRE 896 288 896 240
WIRE -896 304 -896 64
WIRE -48 304 -48 80
WIRE 720 304 720 144
WIRE -1184 352 -1184 288
WIRE -960 352 -1184 352
WIRE -336 352 -336 288
WIRE -112 352 -336 352
WIRE 432 352 432 288
WIRE 656 352 432 352
WIRE -1184 528 -1184 352
WIRE -896 528 -896 400
WIRE -336 528 -336 352
WIRE -48 528 -48 400
WIRE 432 528 432 352
WIRE 720 528 720 400
WIRE -1184 656 -1184 608
WIRE -896 656 -896 608
WIRE -896 656 -1184 656
WIRE -336 656 -336 608
WIRE -48 656 -48 608
WIRE -48 656 -336 656
WIRE 432 656 432 608
WIRE 720 656 720 608
WIRE 720 656 432 656
WIRE -896 704 -896 656
WIRE -48 704 -48 656
WIRE 720 704 720 656
WIRE -896 832 -896 784
WIRE -48 832 -48 784
WIRE 720 832 720 784
FLAG -1264 -384 0
FLAG -1328 208 0
FLAG -896 832 0
FLAG -480 208 0
FLAG -48 832 0
FLAG 288 208 0
FLAG 720 832 0
FLAG -512 64 0
FLAG 896 288 0
FLAG -752 -240 Vo1
FLAG -48 80 Vo2
FLAG 720 144 Vo
FLAG -1584 -416 0
SYMBOL voltage -1264 -544 R0
WINDOW 123 0 0 Left 0
WINDOW 39 0 0 Left 0
SYMATTR InstName V1
SYMATTR Value 5
SYMBOL pnp -960 -336 R180
SYMATTR InstName Q1
SYMATTR Value My2N3906
SYMBOL pnp -816 -336 M180
SYMATTR InstName Q2
SYMATTR Value My2N3906
SYMBOL npn -1088 -128 R0
SYMATTR InstName Q3
SYMATTR Value My2N3904
SYMBOL npn -688 -128 M0
SYMATTR InstName Q4
SYMATTR Value My2N3904
SYMBOL npn -960 304 R0
SYMATTR InstName Q5
SYMATTR Value My2N3904
SYMBOL res -912 512 R0
SYMATTR InstName R1
SYMATTR Value 8.06k
SYMBOL res -1200 512 R0
SYMATTR InstName R2
SYMATTR Value 57.6k
SYMBOL res -1200 192 R0
SYMATTR InstName R3
SYMATTR Value 76.8k
SYMBOL voltage -896 688 R0
WINDOW 123 0 0 Left 0
WINDOW 39 0 0 Left 0
SYMATTR InstName V3
SYMATTR Value -5
SYMBOL npn -112 304 R0
SYMATTR InstName Q6
SYMATTR Value My2N3904
SYMBOL res -64 512 R0
SYMATTR InstName R4
SYMATTR Value 8.06k
SYMBOL res -352 512 R0
SYMATTR InstName R5
SYMATTR Value 57.6k
SYMBOL res -352 192 R0
SYMATTR InstName R6
SYMATTR Value 76.8k
SYMBOL voltage -48 688 R0
WINDOW 123 0 0 Left 0
WINDOW 39 0 0 Left 0
SYMATTR InstName V4
SYMATTR Value -5
SYMBOL npn 656 304 R0
SYMATTR InstName Q7
SYMATTR Value My2N3904
SYMBOL res 704 512 R0
SYMATTR InstName R7
SYMATTR Value 8.06k
SYMBOL res 416 512 R0
SYMATTR InstName R8
SYMATTR Value 57.6k
SYMBOL res 416 192 R0
SYMATTR InstName R9
SYMATTR Value 76.8k
SYMBOL voltage 720 688 R0
WINDOW 123 0 0 Left 0
WINDOW 39 0 0 Left 0
SYMATTR InstName V5
SYMATTR Value -5
SYMBOL voltage -512 -48 R0
WINDOW 123 24 124 Left 2
WINDOW 39 0 0 Left 0
SYMATTR Value2 AC 0.001 0
SYMATTR InstName V6
SYMATTR Value SINE(0 0.001 1000)
SYMBOL pnp -112 -192 M180
SYMATTR InstName Q8
SYMATTR Value My2N3906
SYMBOL npn 656 -80 R0
SYMATTR InstName Q9
SYMATTR Value My2N3904
SYMBOL res -112 -736 R90
WINDOW 0 0 56 VBottom 2
WINDOW 3 32 56 VTop 2
SYMATTR InstName R10
SYMATTR Value 100k
SYMBOL res 880 144 R0
SYMATTR InstName R11
SYMATTR Value 240k
SYMBOL res -1600 -576 R0
SYMATTR InstName R12
SYMATTR Value 100k
TEXT 1128 -648 Left 2 !.MODEL My2n3904 npn\n+IS=1.26532e-10 BF=206.302 NF=1.5 VAF=1000\n+IKF=0.0272221 ISE=2.30771e-09 NE=3.31052 BR=20.6302\n+NR=2.89609 VAR=9.39809 IKR=0.272221 ISC=2.30771e-09\n+NC=1.9876 RB=5.8376 IRB=50.3624 RBM=0.634251\n+RE=0.0001 RC=2.65711 XTB=0.1 XTI=1\n+EG=1.05 CJE=4.64214e-12 VJE=0.4 MJE=0.256227\n+TF=4.19578e-10 XTF=0.906167 VTF=8.75418 ITF=0.0105823\n+CJC=3.76961e-12 VJC=0.4 MJC=0.238109 XCJC=0.8\n+FC=0.512134 CJS=0 VJS=0.75 MJS=0.5\n+TR=6.82023e-08 PTF=0 KF=0 AF=1
TEXT 1128 -304 Left 2 !.MODEL My2n3906 pnp\n+IS=7.75521e-12 BF=194.093 NF=1.35509 VAF=156.436\n+IKF=0.0660057 ISE=1.88546e-12 NE=1.81673 BR=3.41317\n+NR=1.5 VAR=5.86061 IKR=1.70599 ISC=7.64281e-10\n+NC=1.92376 RB=6.48961 IRB=0.1 RBM=0.1\n+RE=0.0001 RC=2.45044 XTB=0.1 XTI=1\n+EG=1.05 CJE=6.11928e-12 VJE=0.4 MJE=0.248812\n+TF=5.21843e-10 XTF=0.932702 VTF=9.1046 ITF=0.0106472\n+CJC=6.85007e-12 VJC=0.4 MJC=0.279018 XCJC=0.9\n+FC=0.478887 CJS=0 VJS=0.75 MJS=0.5\n+TR=4.30605e-07 PTF=0 KF=0 AF=1
TEXT -1352 856 Left 2 !.ac dec 101 1000 10000000
